<?xml version="1.0" encoding="UTF-8"?>

<!-- generated on 2023-07-22 12:02:46 by Eclipse SUMO netedit Version 1.10.0
<configuration xmlns:xsi="http://www.w3.org/2001/XMLSchema-instance" xsi:noNamespaceSchemaLocation="http://sumo.dlr.de/xsd/netconvertConfiguration.xsd">

    <input>
        <sumo-net-file value="C:\Projects\SUMO-SIMULATOR\ReversibleLanesIntersection\traffic_lights_static\cfg\default_configuration\default.net.xml"/>
    </input>

    <output>
        <output-file value="C:\Projects\SUMO-SIMULATOR\ReversibleLanesIntersection\traffic_lights_static\cfg\default_configuration\default.net.xml"/>
    </output>

    <processing>
        <geometry.min-radius.fix.railways value="false"/>
        <geometry.max-grade.fix value="false"/>
        <offset.disable-normalization value="true"/>
        <lefthand value="false"/>
    </processing>

    <junctions>
        <no-turnarounds value="true"/>
        <junctions.corner-detail value="5"/>
        <junctions.limit-turn-speed value="5.5"/>
        <rectangular-lane-cut value="false"/>
    </junctions>

    <pedestrian>
        <walkingareas value="false"/>
    </pedestrian>

    <report>
        <aggregate-warnings value="5"/>
    </report>

</configuration>
-->

<net version="1.9" junctionCornerDetail="5" limitTurnSpeed="5.50" xmlns:xsi="http://www.w3.org/2001/XMLSchema-instance" xsi:noNamespaceSchemaLocation="http://sumo.dlr.de/xsd/net_file.xsd">

    <location netOffset="0.00,0.00" convBoundary="-100.00,0.00,100.00,200.00" origBoundary="-10000000000.00,-10000000000.00,10000000000.00,10000000000.00" projParameter="!"/>

    <edge id=":intersection_vertice_0" function="internal">
        <lane id=":intersection_vertice_0_0" index="0" speed="6.51" length="9.03" shape="-4.80,110.40 -5.15,107.95 -6.20,106.20 -7.95,105.15 -10.40,104.80"/>
    </edge>
    <edge id=":intersection_vertice_1" function="internal">
        <lane id=":intersection_vertice_1_0" index="0" speed="13.89" length="20.80" shape="-4.80,110.40 -4.80,89.60"/>
        <lane id=":intersection_vertice_1_1" index="1" speed="13.89" length="20.80" shape="-1.60,110.40 -1.60,89.60"/>
    </edge>
    <edge id=":intersection_vertice_3" function="internal">
        <lane id=":intersection_vertice_3_0" index="0" speed="9.26" length="6.96" shape="-1.60,110.40 -0.85,105.15 0.00,103.73"/>
    </edge>
    <edge id=":intersection_vertice_16" function="internal">
        <lane id=":intersection_vertice_16_0" index="0" speed="9.26" length="12.40" shape="0.00,103.73 1.40,101.40 5.15,99.15 10.40,98.40"/>
    </edge>
    <edge id=":intersection_vertice_4" function="internal">
        <lane id=":intersection_vertice_4_0" index="0" speed="6.51" length="9.03" shape="10.40,104.80 7.95,105.15 6.20,106.20 5.15,107.95 4.80,110.40"/>
    </edge>
    <edge id=":intersection_vertice_5" function="internal">
        <lane id=":intersection_vertice_5_0" index="0" speed="13.89" length="20.80" shape="10.40,104.80 -10.40,104.80"/>
        <lane id=":intersection_vertice_5_1" index="1" speed="13.89" length="20.80" shape="10.40,101.60 -10.40,101.60"/>
    </edge>
    <edge id=":intersection_vertice_7" function="internal">
        <lane id=":intersection_vertice_7_0" index="0" speed="9.26" length="6.96" shape="10.40,101.60 5.15,100.85 3.73,100.00"/>
    </edge>
    <edge id=":intersection_vertice_17" function="internal">
        <lane id=":intersection_vertice_17_0" index="0" speed="9.26" length="12.40" shape="3.73,100.00 1.40,98.60 -0.85,94.85 -1.60,89.60"/>
    </edge>
    <edge id=":intersection_vertice_8" function="internal">
        <lane id=":intersection_vertice_8_0" index="0" speed="6.51" length="9.03" shape="4.80,89.60 5.15,92.05 6.20,93.80 7.95,94.85 10.40,95.20"/>
    </edge>
    <edge id=":intersection_vertice_9" function="internal">
        <lane id=":intersection_vertice_9_0" index="0" speed="13.89" length="20.80" shape="4.80,89.60 4.80,110.40"/>
        <lane id=":intersection_vertice_9_1" index="1" speed="13.89" length="20.80" shape="1.60,89.60 1.60,110.40"/>
    </edge>
    <edge id=":intersection_vertice_11" function="internal">
        <lane id=":intersection_vertice_11_0" index="0" speed="9.26" length="6.96" shape="1.60,89.60 0.85,94.85 -0.00,96.27"/>
    </edge>
    <edge id=":intersection_vertice_18" function="internal">
        <lane id=":intersection_vertice_18_0" index="0" speed="9.26" length="12.40" shape="-0.00,96.27 -1.40,98.60 -5.15,100.85 -10.40,101.60"/>
    </edge>
    <edge id=":intersection_vertice_12" function="internal">
        <lane id=":intersection_vertice_12_0" index="0" speed="6.51" length="9.03" shape="-10.40,95.20 -7.95,94.85 -6.20,93.80 -5.15,92.05 -4.80,89.60"/>
    </edge>
    <edge id=":intersection_vertice_13" function="internal">
        <lane id=":intersection_vertice_13_0" index="0" speed="13.89" length="20.80" shape="-10.40,95.20 10.40,95.20"/>
        <lane id=":intersection_vertice_13_1" index="1" speed="13.89" length="20.80" shape="-10.40,98.40 10.40,98.40"/>
    </edge>
    <edge id=":intersection_vertice_15" function="internal">
        <lane id=":intersection_vertice_15_0" index="0" speed="9.26" length="6.96" shape="-10.40,98.40 -5.15,99.15 -3.73,100.00"/>
    </edge>
    <edge id=":intersection_vertice_19" function="internal">
        <lane id=":intersection_vertice_19_0" index="0" speed="9.26" length="12.40" shape="-3.73,100.00 -1.40,101.40 0.85,105.15 1.60,110.40"/>
    </edge>

    <edge id="east_edge_end" from="intersection_vertice" to="east_vertice" priority="-1" length="1000.00">
        <lane id="east_edge_end_0" index="0" speed="13.89" length="1000.00" shape="10.40,95.20 100.00,95.20"/>
        <lane id="east_edge_end_1" index="1" speed="13.89" length="1000.00" shape="10.40,98.40 100.00,98.40"/>
    </edge>
    <edge id="east_edge_start" from="east_vertice" to="intersection_vertice" priority="-1" length="1000.00">
        <lane id="east_edge_start_0" index="0" speed="13.89" length="1000.00" shape="100.00,104.80 10.40,104.80"/>
        <lane id="east_edge_start_1" index="1" speed="13.89" length="1000.00" shape="100.00,101.60 10.40,101.60"/>
    </edge>
    <edge id="north_edge_end" from="intersection_vertice" to="north_vertice" priority="-1" length="1000.00">
        <lane id="north_edge_end_0" index="0" speed="13.89" length="1000.00" shape="4.80,110.40 4.80,200.00"/>
        <lane id="north_edge_end_1" index="1" speed="13.89" length="1000.00" shape="1.60,110.40 1.60,200.00"/>
    </edge>
    <edge id="north_edge_start" from="north_vertice" to="intersection_vertice" priority="-1" length="1000.00">
        <lane id="north_edge_start_0" index="0" speed="13.89" length="1000.00" shape="-4.80,200.00 -4.80,110.40"/>
        <lane id="north_edge_start_1" index="1" speed="13.89" length="1000.00" shape="-1.60,200.00 -1.60,110.40"/>
    </edge>
    <edge id="south_edge_end" from="intersection_vertice" to="south_vertice" priority="-1" length="1000.00">
        <lane id="south_edge_end_0" index="0" speed="13.89" length="1000.00" shape="-4.80,89.60 -4.80,0.00"/>
        <lane id="south_edge_end_1" index="1" speed="13.89" length="1000.00" shape="-1.60,89.60 -1.60,0.00"/>
    </edge>
    <edge id="south_edge_start" from="south_vertice" to="intersection_vertice" priority="-1" length="1000.00">
        <lane id="south_edge_start_0" index="0" speed="13.89" length="1000.00" shape="4.80,0.00 4.80,89.60"/>
        <lane id="south_edge_start_1" index="1" speed="13.89" length="1000.00" shape="1.60,0.00 1.60,89.60"/>
    </edge>
    <edge id="west_edge_end" from="intersection_vertice" to="west_vertice" priority="-1" length="1000.00">
        <lane id="west_edge_end_0" index="0" speed="13.89" length="1000.00" shape="-10.40,104.80 -100.00,104.80"/>
        <lane id="west_edge_end_1" index="1" speed="13.89" length="1000.00" shape="-10.40,101.60 -100.00,101.60"/>
    </edge>
    <edge id="west_edge_start" from="west_vertice" to="intersection_vertice" priority="-1" length="1000.00">
        <lane id="west_edge_start_0" index="0" speed="13.89" length="1000.00" shape="-100.00,95.20 -10.40,95.20"/>
        <lane id="west_edge_start_1" index="1" speed="13.89" length="1000.00" shape="-100.00,98.40 -10.40,98.40"/>
    </edge>

    <tlLogic id="intersection_vertice" type="static" programID="0" offset="0">
        <phase duration="42" state="GGGgrrrrGGGgrrrr"/>
        <phase duration="3"  state="yyyyrrrryyyyrrrr"/>
        <phase duration="42" state="rrrrGGGgrrrrGGGg"/>
        <phase duration="3"  state="rrrryyyyrrrryyyy"/>
    </tlLogic>
    <tlLogic id="intersection_vertice" type="static" programID="1" offset="0">
        <phase duration="42" state="GGGgrrrrGGGgrrrr"/>
        <phase duration="3"  state="yyyyrrrryyyyrrrr"/>
        <phase duration="42" state="rrrrGGGgrrrrGGGg"/>
        <phase duration="3"  state="rrrryyyyrrrryyyy"/>
    </tlLogic>

    <junction id="east_vertice" type="dead_end" x="100.00" y="100.00" incLanes="east_edge_end_0 east_edge_end_1" intLanes="" shape="100.00,100.00 100.00,93.60 100.00,100.00"/>
    <junction id="intersection_vertice" type="traffic_light" x="0.00" y="100.00" incLanes="north_edge_start_0 north_edge_start_1 east_edge_start_0 east_edge_start_1 south_edge_start_0 south_edge_start_1 west_edge_start_0 west_edge_start_1" intLanes=":intersection_vertice_0_0 :intersection_vertice_1_0 :intersection_vertice_1_1 :intersection_vertice_16_0 :intersection_vertice_4_0 :intersection_vertice_5_0 :intersection_vertice_5_1 :intersection_vertice_17_0 :intersection_vertice_8_0 :intersection_vertice_9_0 :intersection_vertice_9_1 :intersection_vertice_18_0 :intersection_vertice_12_0 :intersection_vertice_13_0 :intersection_vertice_13_1 :intersection_vertice_19_0" shape="-6.40,110.40 6.40,110.40 6.84,108.18 7.40,107.40 8.18,106.84 9.18,106.51 10.40,106.40 10.40,93.60 8.18,93.16 7.40,92.60 6.84,91.82 6.51,90.82 6.40,89.60 -6.40,89.60 -6.84,91.82 -7.40,92.60 -8.18,93.16 -9.18,93.49 -10.40,93.60 -10.40,106.40 -8.18,106.84 -7.40,107.40 -6.84,108.18 -6.51,109.18">
        <request index="0"  response="0000000000000000" foes="0000000001100000" cont="0"/>
        <request index="1"  response="1000000010000000" foes="1111100011100000" cont="0"/>
        <request index="2"  response="1000000010000000" foes="1111100011100000" cont="0"/>
        <request index="3"  response="1000011010000000" foes="1110011011100000" cont="1"/>
        <request index="4"  response="0000011000000000" foes="0000011000000000" cont="0"/>
        <request index="5"  response="0000111000001111" foes="1000111000001111" cont="0"/>
        <request index="6"  response="0000111000001111" foes="1000111000001111" cont="0"/>
        <request index="7"  response="0110111000001110" foes="0110111000001110" cont="1"/>
        <request index="8"  response="0000000000000000" foes="0110000000000000" cont="0"/>
        <request index="9"  response="1000000010000000" foes="1110000011111000" cont="0"/>
        <request index="10" response="1000000010000000" foes="1110000011111000" cont="0"/>
        <request index="11" response="1000000010000110" foes="1110000011100110" cont="1"/>
        <request index="12" response="0000000000000110" foes="0000000000000110" cont="0"/>
        <request index="13" response="0000111100001110" foes="0000111110001110" cont="0"/>
        <request index="14" response="0000111100001110" foes="0000111110001110" cont="0"/>
        <request index="15" response="0000111001101110" foes="0000111001101110" cont="1"/>
    </junction>
    <junction id="north_vertice" type="dead_end" x="0.00" y="200.00" incLanes="north_edge_end_0 north_edge_end_1" intLanes="" shape="0.00,200.00 6.40,200.00 0.00,200.00"/>
    <junction id="south_vertice" type="dead_end" x="0.00" y="0.00" incLanes="south_edge_end_0 south_edge_end_1" intLanes="" shape="0.00,0.00 -6.40,0.00 0.00,0.00"/>
    <junction id="west_vertice" type="dead_end" x="-100.00" y="100.00" incLanes="west_edge_end_0 west_edge_end_1" intLanes="" shape="-100.00,100.00 -100.00,106.40 -100.00,100.00"/>

    <junction id=":intersection_vertice_16_0" type="internal" x="0.00" y="103.73" incLanes=":intersection_vertice_3_0 south_edge_start_0 south_edge_start_1" intLanes=":intersection_vertice_5_0 :intersection_vertice_5_1 :intersection_vertice_7_0 :intersection_vertice_8_0 :intersection_vertice_9_0 :intersection_vertice_9_1 :intersection_vertice_13_0 :intersection_vertice_13_1 :intersection_vertice_15_0"/>
    <junction id=":intersection_vertice_17_0" type="internal" x="3.73" y="100.00" incLanes=":intersection_vertice_7_0 west_edge_start_0 west_edge_start_1" intLanes=":intersection_vertice_1_0 :intersection_vertice_1_1 :intersection_vertice_3_0 :intersection_vertice_9_0 :intersection_vertice_9_1 :intersection_vertice_11_0 :intersection_vertice_12_0 :intersection_vertice_13_0 :intersection_vertice_13_1"/>
    <junction id=":intersection_vertice_18_0" type="internal" x="-0.00" y="96.27" incLanes=":intersection_vertice_11_0 north_edge_start_0 north_edge_start_1" intLanes=":intersection_vertice_0_0 :intersection_vertice_1_0 :intersection_vertice_1_1 :intersection_vertice_5_0 :intersection_vertice_5_1 :intersection_vertice_7_0 :intersection_vertice_13_0 :intersection_vertice_13_1 :intersection_vertice_15_0"/>
    <junction id=":intersection_vertice_19_0" type="internal" x="-3.73" y="100.00" incLanes=":intersection_vertice_15_0 east_edge_start_0 east_edge_start_1" intLanes=":intersection_vertice_1_0 :intersection_vertice_1_1 :intersection_vertice_3_0 :intersection_vertice_4_0 :intersection_vertice_5_0 :intersection_vertice_5_1 :intersection_vertice_9_0 :intersection_vertice_9_1 :intersection_vertice_11_0"/>

    <connection from="east_edge_start" to="north_edge_end" fromLane="0" toLane="0" via=":intersection_vertice_4_0" tl="intersection_vertice" linkIndex="4" dir="r" state="o"/>
    <connection from="east_edge_start" to="west_edge_end" fromLane="0" toLane="0" via=":intersection_vertice_5_0" tl="intersection_vertice" linkIndex="5" dir="s" state="o"/>
    <connection from="east_edge_start" to="west_edge_end" fromLane="1" toLane="1" via=":intersection_vertice_5_1" tl="intersection_vertice" linkIndex="6" dir="s" state="o"/>
    <connection from="east_edge_start" to="south_edge_end" fromLane="1" toLane="1" via=":intersection_vertice_7_0" tl="intersection_vertice" linkIndex="7" dir="l" state="o"/>
    <connection from="north_edge_start" to="west_edge_end" fromLane="0" toLane="0" via=":intersection_vertice_0_0" tl="intersection_vertice" linkIndex="0" dir="r" state="O"/>
    <connection from="north_edge_start" to="south_edge_end" fromLane="0" toLane="0" via=":intersection_vertice_1_0" tl="intersection_vertice" linkIndex="1" dir="s" state="O"/>
    <connection from="north_edge_start" to="south_edge_end" fromLane="1" toLane="1" via=":intersection_vertice_1_1" tl="intersection_vertice" linkIndex="2" dir="s" state="O"/>
    <connection from="north_edge_start" to="east_edge_end" fromLane="1" toLane="1" via=":intersection_vertice_3_0" tl="intersection_vertice" linkIndex="3" dir="l" state="o"/>
    <connection from="south_edge_start" to="east_edge_end" fromLane="0" toLane="0" via=":intersection_vertice_8_0" tl="intersection_vertice" linkIndex="8" dir="r" state="O"/>
    <connection from="south_edge_start" to="north_edge_end" fromLane="0" toLane="0" via=":intersection_vertice_9_0" tl="intersection_vertice" linkIndex="9" dir="s" state="O"/>
    <connection from="south_edge_start" to="north_edge_end" fromLane="1" toLane="1" via=":intersection_vertice_9_1" tl="intersection_vertice" linkIndex="10" dir="s" state="O"/>
    <connection from="south_edge_start" to="west_edge_end" fromLane="1" toLane="1" via=":intersection_vertice_11_0" tl="intersection_vertice" linkIndex="11" dir="l" state="o"/>
    <connection from="west_edge_start" to="south_edge_end" fromLane="0" toLane="0" via=":intersection_vertice_12_0" tl="intersection_vertice" linkIndex="12" dir="r" state="o"/>
    <connection from="west_edge_start" to="east_edge_end" fromLane="0" toLane="0" via=":intersection_vertice_13_0" tl="intersection_vertice" linkIndex="13" dir="s" state="o"/>
    <connection from="west_edge_start" to="east_edge_end" fromLane="1" toLane="1" via=":intersection_vertice_13_1" tl="intersection_vertice" linkIndex="14" dir="s" state="o"/>
    <connection from="west_edge_start" to="north_edge_end" fromLane="1" toLane="1" via=":intersection_vertice_15_0" tl="intersection_vertice" linkIndex="15" dir="l" state="o"/>

    <connection from=":intersection_vertice_0" to="west_edge_end" fromLane="0" toLane="0" dir="r" state="M"/>
    <connection from=":intersection_vertice_1" to="south_edge_end" fromLane="0" toLane="0" dir="s" state="M"/>
    <connection from=":intersection_vertice_1" to="south_edge_end" fromLane="1" toLane="1" dir="s" state="M"/>
    <connection from=":intersection_vertice_3" to="east_edge_end" fromLane="0" toLane="1" via=":intersection_vertice_16_0" dir="l" state="m"/>
    <connection from=":intersection_vertice_16" to="east_edge_end" fromLane="0" toLane="1" dir="l" state="M"/>
    <connection from=":intersection_vertice_4" to="north_edge_end" fromLane="0" toLane="0" dir="r" state="M"/>
    <connection from=":intersection_vertice_5" to="west_edge_end" fromLane="0" toLane="0" dir="s" state="M"/>
    <connection from=":intersection_vertice_5" to="west_edge_end" fromLane="1" toLane="1" dir="s" state="M"/>
    <connection from=":intersection_vertice_7" to="south_edge_end" fromLane="0" toLane="1" via=":intersection_vertice_17_0" dir="l" state="m"/>
    <connection from=":intersection_vertice_17" to="south_edge_end" fromLane="0" toLane="1" dir="l" state="M"/>
    <connection from=":intersection_vertice_8" to="east_edge_end" fromLane="0" toLane="0" dir="r" state="M"/>
    <connection from=":intersection_vertice_9" to="north_edge_end" fromLane="0" toLane="0" dir="s" state="M"/>
    <connection from=":intersection_vertice_9" to="north_edge_end" fromLane="1" toLane="1" dir="s" state="M"/>
    <connection from=":intersection_vertice_11" to="west_edge_end" fromLane="0" toLane="1" via=":intersection_vertice_18_0" dir="l" state="m"/>
    <connection from=":intersection_vertice_18" to="west_edge_end" fromLane="0" toLane="1" dir="l" state="M"/>
    <connection from=":intersection_vertice_12" to="south_edge_end" fromLane="0" toLane="0" dir="r" state="M"/>
    <connection from=":intersection_vertice_13" to="east_edge_end" fromLane="0" toLane="0" dir="s" state="M"/>
    <connection from=":intersection_vertice_13" to="east_edge_end" fromLane="1" toLane="1" dir="s" state="M"/>
    <connection from=":intersection_vertice_15" to="north_edge_end" fromLane="0" toLane="1" via=":intersection_vertice_19_0" dir="l" state="m"/>
    <connection from=":intersection_vertice_19" to="north_edge_end" fromLane="0" toLane="1" dir="l" state="M"/>

</net>
