<?xml version="1.0" encoding="UTF-8"?>

<!-- generated on 2023-05-15 09:37:38 by Eclipse SUMO netedit Version 1.10.0
<configuration xmlns:xsi="http://www.w3.org/2001/XMLSchema-instance" xsi:noNamespaceSchemaLocation="http://sumo.dlr.de/xsd/netconvertConfiguration.xsd">

    <input>
        <sumo-net-file value="C:\Projects\SUMO-SIMULATOR\ReversibleLanesIntersection\cfg\s_configuration\s.net.xml"/>
    </input>

    <output>
        <output-file value="C:\Projects\SUMO-SIMULATOR\ReversibleLanesIntersection\cfg\s_configuration\s.net.xml"/>
    </output>

    <processing>
        <geometry.min-radius.fix.railways value="false"/>
        <geometry.max-grade.fix value="false"/>
        <offset.disable-normalization value="true"/>
        <lefthand value="false"/>
    </processing>

    <junctions>
        <no-turnarounds value="true"/>
        <junctions.corner-detail value="5"/>
        <junctions.limit-turn-speed value="5.5"/>
        <rectangular-lane-cut value="false"/>
    </junctions>

    <pedestrian>
        <walkingareas value="false"/>
    </pedestrian>

    <report>
        <aggregate-warnings value="5"/>
    </report>

</configuration>
-->

<net version="1.9" junctionCornerDetail="5" limitTurnSpeed="5.50" xmlns:xsi="http://www.w3.org/2001/XMLSchema-instance" xsi:noNamespaceSchemaLocation="http://sumo.dlr.de/xsd/net_file.xsd">

    <location netOffset="0.00,0.00" convBoundary="-100.00,0.00,100.00,200.00" origBoundary="-10000000000.00,-10000000000.00,10000000000.00,10000000000.00" projParameter="!"/>

    <edge id=":intersection_vertice_0" function="internal">
        <lane id=":intersection_vertice_0_0" index="0" speed="6.51" length="9.03" shape="-1.60,110.40 -1.95,107.95 -3.00,106.20 -4.75,105.15 -7.20,104.80"/>
    </edge>
    <edge id=":intersection_vertice_1" function="internal">
        <lane id=":intersection_vertice_1_0" index="0" speed="13.89" length="20.80" shape="-1.60,110.40 -1.60,89.60"/>
    </edge>
    <edge id=":intersection_vertice_2" function="internal">
        <lane id=":intersection_vertice_2_0" index="0" speed="9.84" length="6.41" shape="-1.60,110.40 -0.65,105.15 0.00,104.29"/>
    </edge>
    <edge id=":intersection_vertice_16" function="internal">
        <lane id=":intersection_vertice_16_0" index="0" speed="9.84" length="15.58" shape="0.00,104.29 2.20,101.40 6.95,99.15 13.60,98.40"/>
    </edge>
    <edge id=":intersection_vertice_3" function="internal">
        <lane id=":intersection_vertice_3_0" index="0" speed="7.33" length="11.73" shape="13.60,104.80 9.75,105.15 7.00,106.20 5.35,107.95 4.80,110.40"/>
    </edge>
    <edge id=":intersection_vertice_4" function="internal">
        <lane id=":intersection_vertice_4_0" index="0" speed="13.89" length="20.80" shape="13.60,104.80 -7.20,104.80"/>
        <lane id=":intersection_vertice_4_1" index="1" speed="13.89" length="20.80" shape="13.60,101.60 -7.20,101.60"/>
    </edge>
    <edge id=":intersection_vertice_6" function="internal">
        <lane id=":intersection_vertice_6_0" index="0" speed="9.84" length="21.99" shape="13.60,101.60 6.95,100.85 2.20,98.60 -0.65,94.85 -1.60,89.60"/>
    </edge>
    <edge id=":intersection_vertice_7" function="internal">
        <lane id=":intersection_vertice_7_0" index="0" speed="6.51" length="9.03" shape="8.00,89.60 8.35,92.05 9.40,93.80 11.15,94.85 13.60,95.20"/>
    </edge>
    <edge id=":intersection_vertice_8" function="internal">
        <lane id=":intersection_vertice_8_0" index="0" speed="13.89" length="20.80" shape="8.00,89.60 8.00,110.40"/>
        <lane id=":intersection_vertice_8_1" index="1" speed="13.89" length="20.80" shape="4.80,89.60 4.80,110.40"/>
        <lane id=":intersection_vertice_8_2" index="2" speed="13.89" length="20.80" shape="1.60,89.60 1.60,110.40"/>
    </edge>
    <edge id=":intersection_vertice_11" function="internal">
        <lane id=":intersection_vertice_11_0" index="0" speed="8.67" length="7.89" shape="1.60,89.60 1.05,94.85 0.00,97.24"/>
    </edge>
    <edge id=":intersection_vertice_17" function="internal">
        <lane id=":intersection_vertice_17_0" index="0" speed="8.67" length="8.97" shape="0.00,97.24 -0.60,98.60 -3.35,100.85 -7.20,101.60"/>
    </edge>
    <edge id=":intersection_vertice_12" function="internal">
        <lane id=":intersection_vertice_12_0" index="0" speed="6.51" length="9.03" shape="-7.20,95.20 -4.75,94.85 -3.00,93.80 -1.95,92.05 -1.60,89.60"/>
    </edge>
    <edge id=":intersection_vertice_13" function="internal">
        <lane id=":intersection_vertice_13_0" index="0" speed="13.89" length="20.80" shape="-7.20,95.20 13.60,95.20"/>
        <lane id=":intersection_vertice_13_1" index="1" speed="13.89" length="20.80" shape="-7.20,98.40 13.60,98.40"/>
    </edge>
    <edge id=":intersection_vertice_15" function="internal">
        <lane id=":intersection_vertice_15_0" index="0" speed="8.67" length="16.85" shape="-7.20,98.40 -3.35,99.15 -0.60,101.40 1.05,105.15 1.60,110.40"/>
    </edge>

    <edge id="east_edge_end" from="intersection_vertice" to="east_vertice" priority="-1" length="1000.00">
        <lane id="east_edge_end_0" index="0" speed="13.89" length="1000.00" shape="13.60,95.20 100.00,95.20"/>
        <lane id="east_edge_end_1" index="1" speed="13.89" length="1000.00" shape="13.60,98.40 100.00,98.40"/>
    </edge>
    <edge id="east_edge_start" from="east_vertice" to="intersection_vertice" priority="-1" length="1000.00">
        <lane id="east_edge_start_0" index="0" speed="13.89" length="1000.00" shape="100.00,104.80 13.60,104.80"/>
        <lane id="east_edge_start_1" index="1" speed="13.89" length="1000.00" shape="100.00,101.60 13.60,101.60"/>
    </edge>
    <edge id="north_edge_end" from="intersection_vertice" to="north_vertice" priority="-1" length="1000.00">
        <lane id="north_edge_end_0" index="0" speed="13.89" length="1000.00" shape="8.00,110.40 8.00,200.00"/>
        <lane id="north_edge_end_1" index="1" speed="13.89" length="1000.00" shape="4.80,110.40 4.80,200.00"/>
        <lane id="north_edge_end_2" index="2" speed="13.89" length="1000.00" shape="1.60,110.40 1.60,200.00"/>
    </edge>
    <edge id="north_edge_start" from="north_vertice" to="intersection_vertice" priority="-1" length="1000.00">
        <lane id="north_edge_start_0" index="0" speed="13.89" length="1000.00" shape="-1.60,200.00 -1.60,110.40"/>
    </edge>
    <edge id="south_edge_end" from="intersection_vertice" to="south_vertice" priority="-1" length="1000.00">
        <lane id="south_edge_end_0" index="0" speed="13.89" length="1000.00" shape="-1.60,89.60 -1.60,0.00"/>
    </edge>
    <edge id="south_edge_start" from="south_vertice" to="intersection_vertice" priority="-1" length="1000.00">
        <lane id="south_edge_start_0" index="0" speed="13.89" length="1000.00" shape="8.00,0.00 8.00,89.60"/>
        <lane id="south_edge_start_1" index="1" speed="13.89" length="1000.00" shape="4.80,0.00 4.80,89.60"/>
        <lane id="south_edge_start_2" index="2" speed="13.89" length="1000.00" shape="1.60,0.00 1.60,89.60"/>
    </edge>
    <edge id="west_edge_end" from="intersection_vertice" to="west_vertice" priority="-1" length="1000.00">
        <lane id="west_edge_end_0" index="0" speed="13.89" length="1000.00" shape="-7.20,104.80 -100.00,104.80"/>
        <lane id="west_edge_end_1" index="1" speed="13.89" length="1000.00" shape="-7.20,101.60 -100.00,101.60"/>
    </edge>
    <edge id="west_edge_start" from="west_vertice" to="intersection_vertice" priority="-1" length="1000.00">
        <lane id="west_edge_start_0" index="0" speed="13.89" length="1000.00" shape="-100.00,95.20 -7.20,95.20"/>
        <lane id="west_edge_start_1" index="1" speed="13.89" length="1000.00" shape="-100.00,98.40 -7.20,98.40"/>
    </edge>

    <junction id="east_vertice" type="dead_end" x="100.00" y="100.00" incLanes="east_edge_end_0 east_edge_end_1" intLanes="" shape="100.00,100.00 100.00,93.60 100.00,100.00"/>
    <junction id="intersection_vertice" type="priority" x="0.00" y="100.00" incLanes="north_edge_start_0 east_edge_start_0 east_edge_start_1 south_edge_start_0 south_edge_start_1 south_edge_start_2 west_edge_start_0 west_edge_start_1" intLanes=":intersection_vertice_0_0 :intersection_vertice_1_0 :intersection_vertice_16_0 :intersection_vertice_3_0 :intersection_vertice_4_0 :intersection_vertice_4_1 :intersection_vertice_6_0 :intersection_vertice_7_0 :intersection_vertice_8_0 :intersection_vertice_8_1 :intersection_vertice_8_2 :intersection_vertice_17_0 :intersection_vertice_12_0 :intersection_vertice_13_0 :intersection_vertice_13_1 :intersection_vertice_15_0" shape="-3.20,110.40 9.60,110.40 10.04,108.18 10.60,107.40 11.38,106.84 12.38,106.51 13.60,106.40 13.60,93.60 11.38,93.16 10.60,92.60 10.04,91.82 9.71,90.82 9.60,89.60 -3.20,89.60 -3.64,91.82 -4.20,92.60 -4.98,93.16 -5.98,93.49 -7.20,93.60 -7.20,106.40 -4.98,106.84 -4.20,107.40 -3.64,108.18 -3.31,109.18">
        <request index="0"  response="0000000000000000" foes="0000000000110000" cont="0"/>
        <request index="1"  response="0000000000000000" foes="1111100001110000" cont="0"/>
        <request index="2"  response="0000011100000000" foes="1110011101110000" cont="1"/>
        <request index="3"  response="0000011100000000" foes="0000011100000000" cont="0"/>
        <request index="4"  response="0000111100000111" foes="1000111100000111" cont="0"/>
        <request index="5"  response="0000111100000111" foes="1000111100000111" cont="0"/>
        <request index="6"  response="0111111100000110" foes="0111111100000110" cont="0"/>
        <request index="7"  response="0000000000000000" foes="0110000000000000" cont="0"/>
        <request index="8"  response="0000000000000000" foes="1110000001111100" cont="0"/>
        <request index="9"  response="0000000000000000" foes="1110000001111100" cont="0"/>
        <request index="10" response="0000000000000000" foes="1110000001111100" cont="0"/>
        <request index="11" response="0000000000000010" foes="1110000001110010" cont="1"/>
        <request index="12" response="0000000000000010" foes="0000000001000010" cont="0"/>
        <request index="13" response="0000111110000110" foes="0000111111000110" cont="0"/>
        <request index="14" response="0000111110000110" foes="0000111111000110" cont="0"/>
        <request index="15" response="0000111100110110" foes="0000111100110110" cont="0"/>
    </junction>
    <junction id="north_vertice" type="dead_end" x="0.00" y="200.00" incLanes="north_edge_end_0 north_edge_end_1 north_edge_end_2" intLanes="" shape="0.00,200.00 9.60,200.00 0.00,200.00"/>
    <junction id="south_vertice" type="dead_end" x="0.00" y="0.00" incLanes="south_edge_end_0" intLanes="" shape="0.00,0.00 -3.20,0.00 0.00,0.00"/>
    <junction id="west_vertice" type="dead_end" x="-100.00" y="100.00" incLanes="west_edge_end_0 west_edge_end_1" intLanes="" shape="-100.00,100.00 -100.00,106.40 -100.00,100.00"/>

    <junction id=":intersection_vertice_16_0" type="internal" x="0.00" y="104.29" incLanes=":intersection_vertice_2_0 south_edge_start_0 south_edge_start_1 south_edge_start_2" intLanes=":intersection_vertice_4_0 :intersection_vertice_4_1 :intersection_vertice_6_0 :intersection_vertice_7_0 :intersection_vertice_8_0 :intersection_vertice_8_1 :intersection_vertice_8_2 :intersection_vertice_13_0 :intersection_vertice_13_1 :intersection_vertice_15_0"/>
    <junction id=":intersection_vertice_17_0" type="internal" x="0.00" y="97.24" incLanes=":intersection_vertice_11_0 north_edge_start_0" intLanes=":intersection_vertice_0_0 :intersection_vertice_1_0 :intersection_vertice_4_0 :intersection_vertice_4_1 :intersection_vertice_6_0 :intersection_vertice_13_0 :intersection_vertice_13_1 :intersection_vertice_15_0"/>

    <connection from="east_edge_start" to="north_edge_end" fromLane="0" toLane="1" via=":intersection_vertice_3_0" dir="r" state="m"/>
    <connection from="east_edge_start" to="west_edge_end" fromLane="0" toLane="0" via=":intersection_vertice_4_0" dir="s" state="m"/>
    <connection from="east_edge_start" to="west_edge_end" fromLane="1" toLane="1" via=":intersection_vertice_4_1" dir="s" state="m"/>
    <connection from="east_edge_start" to="south_edge_end" fromLane="1" toLane="0" via=":intersection_vertice_6_0" dir="l" state="m"/>
    <connection from="north_edge_start" to="west_edge_end" fromLane="0" toLane="0" via=":intersection_vertice_0_0" dir="r" state="M"/>
    <connection from="north_edge_start" to="south_edge_end" fromLane="0" toLane="0" via=":intersection_vertice_1_0" dir="s" state="M"/>
    <connection from="north_edge_start" to="east_edge_end" fromLane="0" toLane="1" via=":intersection_vertice_2_0" dir="l" state="m"/>
    <connection from="south_edge_start" to="east_edge_end" fromLane="0" toLane="0" via=":intersection_vertice_7_0" dir="r" state="M"/>
    <connection from="south_edge_start" to="north_edge_end" fromLane="0" toLane="0" via=":intersection_vertice_8_0" dir="s" state="M"/>
    <connection from="south_edge_start" to="north_edge_end" fromLane="1" toLane="1" via=":intersection_vertice_8_1" dir="s" state="M"/>
    <connection from="south_edge_start" to="north_edge_end" fromLane="2" toLane="2" via=":intersection_vertice_8_2" dir="s" state="M"/>
    <connection from="south_edge_start" to="west_edge_end" fromLane="2" toLane="1" via=":intersection_vertice_11_0" dir="l" state="m"/>
    <connection from="west_edge_start" to="south_edge_end" fromLane="0" toLane="0" via=":intersection_vertice_12_0" dir="r" state="m"/>
    <connection from="west_edge_start" to="east_edge_end" fromLane="0" toLane="0" via=":intersection_vertice_13_0" dir="s" state="m"/>
    <connection from="west_edge_start" to="east_edge_end" fromLane="1" toLane="1" via=":intersection_vertice_13_1" dir="s" state="m"/>
    <connection from="west_edge_start" to="north_edge_end" fromLane="1" toLane="2" via=":intersection_vertice_15_0" dir="l" state="m"/>

    <connection from=":intersection_vertice_0" to="west_edge_end" fromLane="0" toLane="0" dir="r" state="M"/>
    <connection from=":intersection_vertice_1" to="south_edge_end" fromLane="0" toLane="0" dir="s" state="M"/>
    <connection from=":intersection_vertice_2" to="east_edge_end" fromLane="0" toLane="1" via=":intersection_vertice_16_0" dir="l" state="m"/>
    <connection from=":intersection_vertice_16" to="east_edge_end" fromLane="0" toLane="1" dir="l" state="M"/>
    <connection from=":intersection_vertice_3" to="north_edge_end" fromLane="0" toLane="1" dir="r" state="M"/>
    <connection from=":intersection_vertice_4" to="west_edge_end" fromLane="0" toLane="0" dir="s" state="M"/>
    <connection from=":intersection_vertice_4" to="west_edge_end" fromLane="1" toLane="1" dir="s" state="M"/>
    <connection from=":intersection_vertice_6" to="south_edge_end" fromLane="0" toLane="0" dir="l" state="M"/>
    <connection from=":intersection_vertice_7" to="east_edge_end" fromLane="0" toLane="0" dir="r" state="M"/>
    <connection from=":intersection_vertice_8" to="north_edge_end" fromLane="0" toLane="0" dir="s" state="M"/>
    <connection from=":intersection_vertice_8" to="north_edge_end" fromLane="1" toLane="1" dir="s" state="M"/>
    <connection from=":intersection_vertice_8" to="north_edge_end" fromLane="2" toLane="2" dir="s" state="M"/>
    <connection from=":intersection_vertice_11" to="west_edge_end" fromLane="0" toLane="1" via=":intersection_vertice_17_0" dir="l" state="m"/>
    <connection from=":intersection_vertice_17" to="west_edge_end" fromLane="0" toLane="1" dir="l" state="M"/>
    <connection from=":intersection_vertice_12" to="south_edge_end" fromLane="0" toLane="0" dir="r" state="M"/>
    <connection from=":intersection_vertice_13" to="east_edge_end" fromLane="0" toLane="0" dir="s" state="M"/>
    <connection from=":intersection_vertice_13" to="east_edge_end" fromLane="1" toLane="1" dir="s" state="M"/>
    <connection from=":intersection_vertice_15" to="north_edge_end" fromLane="0" toLane="2" dir="l" state="M"/>

</net>
