<?xml version="1.0" encoding="UTF-8"?>

<!-- generated on 2023-07-22 12:23:45 by Eclipse SUMO netedit Version 1.10.0
<configuration xmlns:xsi="http://www.w3.org/2001/XMLSchema-instance" xsi:noNamespaceSchemaLocation="http://sumo.dlr.de/xsd/netconvertConfiguration.xsd">

    <input>
        <sumo-net-file value="C:\Projects\SUMO-SIMULATOR\ReversibleLanesIntersection\traffic_lights_static\cfg\w_configuration\w.net.xml"/>
    </input>

    <output>
        <output-file value="C:\Projects\SUMO-SIMULATOR\ReversibleLanesIntersection\traffic_lights_static\cfg\w_configuration\w.net.xml"/>
    </output>

    <processing>
        <geometry.min-radius.fix.railways value="false"/>
        <geometry.max-grade.fix value="false"/>
        <offset.disable-normalization value="true"/>
        <lefthand value="false"/>
    </processing>

    <junctions>
        <no-turnarounds value="true"/>
        <junctions.corner-detail value="5"/>
        <junctions.limit-turn-speed value="5.5"/>
        <rectangular-lane-cut value="false"/>
    </junctions>

    <pedestrian>
        <walkingareas value="false"/>
    </pedestrian>

    <report>
        <aggregate-warnings value="5"/>
    </report>

</configuration>
-->

<net version="1.9" junctionCornerDetail="5" limitTurnSpeed="5.50" xmlns:xsi="http://www.w3.org/2001/XMLSchema-instance" xsi:noNamespaceSchemaLocation="http://sumo.dlr.de/xsd/net_file.xsd">

    <location netOffset="0.00,0.00" convBoundary="-100.00,0.00,100.00,200.00" origBoundary="-10000000000.00,-10000000000.00,10000000000.00,10000000000.00" projParameter="!"/>

    <edge id=":intersection_vertice_0" function="internal">
        <lane id=":intersection_vertice_0_0" index="0" speed="6.51" length="9.03" shape="-4.80,107.20 -5.15,104.75 -6.20,103.00 -7.95,101.95 -10.40,101.60"/>
    </edge>
    <edge id=":intersection_vertice_1" function="internal">
        <lane id=":intersection_vertice_1_0" index="0" speed="13.89" length="20.80" shape="-4.80,107.20 -4.80,86.40"/>
        <lane id=":intersection_vertice_1_1" index="1" speed="13.89" length="20.80" shape="-1.60,107.20 -1.60,86.40"/>
    </edge>
    <edge id=":intersection_vertice_3" function="internal">
        <lane id=":intersection_vertice_3_0" index="0" speed="8.67" length="5.26" shape="-1.60,107.20 -0.85,103.35 0.00,102.31"/>
    </edge>
    <edge id=":intersection_vertice_16" function="internal">
        <lane id=":intersection_vertice_16_0" index="0" speed="8.67" length="11.59" shape="0.00,102.31 1.40,100.60 5.15,98.95 10.40,98.40"/>
    </edge>
    <edge id=":intersection_vertice_4" function="internal">
        <lane id=":intersection_vertice_4_0" index="0" speed="6.51" length="9.03" shape="10.40,101.60 7.95,101.95 6.20,103.00 5.15,104.75 4.80,107.20"/>
    </edge>
    <edge id=":intersection_vertice_5" function="internal">
        <lane id=":intersection_vertice_5_0" index="0" speed="13.89" length="20.80" shape="10.40,101.60 -10.40,101.60"/>
    </edge>
    <edge id=":intersection_vertice_6" function="internal">
        <lane id=":intersection_vertice_6_0" index="0" speed="9.84" length="6.41" shape="10.40,101.60 5.15,100.65 4.29,100.00"/>
    </edge>
    <edge id=":intersection_vertice_17" function="internal">
        <lane id=":intersection_vertice_17_0" index="0" speed="9.84" length="15.58" shape="4.29,100.00 1.40,97.80 -0.85,93.05 -1.60,86.40"/>
    </edge>
    <edge id=":intersection_vertice_7" function="internal">
        <lane id=":intersection_vertice_7_0" index="0" speed="7.33" length="11.73" shape="4.80,86.40 5.15,90.25 6.20,93.00 7.95,94.65 10.40,95.20"/>
    </edge>
    <edge id=":intersection_vertice_8" function="internal">
        <lane id=":intersection_vertice_8_0" index="0" speed="13.89" length="20.80" shape="4.80,86.40 4.80,107.20"/>
        <lane id=":intersection_vertice_8_1" index="1" speed="13.89" length="20.80" shape="1.60,86.40 1.60,107.20"/>
    </edge>
    <edge id=":intersection_vertice_10" function="internal">
        <lane id=":intersection_vertice_10_0" index="0" speed="9.84" length="8.68" shape="1.60,86.40 0.85,93.05 -0.00,94.84"/>
    </edge>
    <edge id=":intersection_vertice_18" function="internal">
        <lane id=":intersection_vertice_18_0" index="0" speed="9.84" length="13.32" shape="-0.00,94.84 -1.40,97.80 -5.15,100.65 -10.40,101.60"/>
    </edge>
    <edge id=":intersection_vertice_11" function="internal">
        <lane id=":intersection_vertice_11_0" index="0" speed="6.51" length="9.03" shape="-10.40,92.00 -7.95,91.65 -6.20,90.60 -5.15,88.85 -4.80,86.40"/>
    </edge>
    <edge id=":intersection_vertice_12" function="internal">
        <lane id=":intersection_vertice_12_0" index="0" speed="13.89" length="20.80" shape="-10.40,92.00 10.40,92.00"/>
        <lane id=":intersection_vertice_12_1" index="1" speed="13.89" length="20.80" shape="-10.40,95.20 10.40,95.20"/>
        <lane id=":intersection_vertice_12_2" index="2" speed="13.89" length="20.80" shape="-10.40,98.40 10.40,98.40"/>
    </edge>
    <edge id=":intersection_vertice_15" function="internal">
        <lane id=":intersection_vertice_15_0" index="0" speed="8.67" length="7.89" shape="-10.40,98.40 -5.15,98.95 -2.76,100.00"/>
    </edge>
    <edge id=":intersection_vertice_19" function="internal">
        <lane id=":intersection_vertice_19_0" index="0" speed="8.67" length="8.97" shape="-2.76,100.00 -1.40,100.60 0.85,103.35 1.60,107.20"/>
    </edge>

    <edge id="east_edge_end" from="intersection_vertice" to="east_vertice" priority="-1" length="1000.00">
        <lane id="east_edge_end_0" index="0" speed="13.89" length="1000.00" shape="10.40,92.00 100.00,92.00"/>
        <lane id="east_edge_end_1" index="1" speed="13.89" length="1000.00" shape="10.40,95.20 100.00,95.20"/>
        <lane id="east_edge_end_2" index="2" speed="13.89" length="1000.00" shape="10.40,98.40 100.00,98.40"/>
    </edge>
    <edge id="east_edge_start" from="east_vertice" to="intersection_vertice" priority="-1" length="1000.00">
        <lane id="east_edge_start_0" index="0" speed="13.89" length="1000.00" shape="100.00,101.60 10.40,101.60"/>
    </edge>
    <edge id="north_edge_end" from="intersection_vertice" to="north_vertice" priority="-1" length="1000.00">
        <lane id="north_edge_end_0" index="0" speed="13.89" length="1000.00" shape="4.80,107.20 4.80,200.00"/>
        <lane id="north_edge_end_1" index="1" speed="13.89" length="1000.00" shape="1.60,107.20 1.60,200.00"/>
    </edge>
    <edge id="north_edge_start" from="north_vertice" to="intersection_vertice" priority="-1" length="1000.00">
        <lane id="north_edge_start_0" index="0" speed="13.89" length="1000.00" shape="-4.80,200.00 -4.80,107.20"/>
        <lane id="north_edge_start_1" index="1" speed="13.89" length="1000.00" shape="-1.60,200.00 -1.60,107.20"/>
    </edge>
    <edge id="south_edge_end" from="intersection_vertice" to="south_vertice" priority="-1" length="1000.00">
        <lane id="south_edge_end_0" index="0" speed="13.89" length="1000.00" shape="-4.80,86.40 -4.80,0.00"/>
        <lane id="south_edge_end_1" index="1" speed="13.89" length="1000.00" shape="-1.60,86.40 -1.60,0.00"/>
    </edge>
    <edge id="south_edge_start" from="south_vertice" to="intersection_vertice" priority="-1" length="1000.00">
        <lane id="south_edge_start_0" index="0" speed="13.89" length="1000.00" shape="4.80,0.00 4.80,86.40"/>
        <lane id="south_edge_start_1" index="1" speed="13.89" length="1000.00" shape="1.60,0.00 1.60,86.40"/>
    </edge>
    <edge id="west_edge_end" from="intersection_vertice" to="west_vertice" priority="-1" length="1000.00">
        <lane id="west_edge_end_0" index="0" speed="13.89" length="1000.00" shape="-10.40,101.60 -100.00,101.60"/>
    </edge>
    <edge id="west_edge_start" from="west_vertice" to="intersection_vertice" priority="-1" length="1000.00">
        <lane id="west_edge_start_0" index="0" speed="13.89" length="1000.00" shape="-100.00,92.00 -10.40,92.00"/>
        <lane id="west_edge_start_1" index="1" speed="13.89" length="1000.00" shape="-100.00,95.20 -10.40,95.20"/>
        <lane id="west_edge_start_2" index="2" speed="13.89" length="1000.00" shape="-100.00,98.40 -10.40,98.40"/>
    </edge>

    <tlLogic id="intersection_vertice" type="static" programID="0" offset="0">
        <phase duration="42" state="rrrrGGgrrrrGGGGg"/>
        <phase duration="3"  state="rrrryyyrrrryyyyy"/>
        <phase duration="42" state="GGGgrrrGGGgrrrrr"/>
        <phase duration="3"  state="yyyyrrryyyyrrrrr"/>
    </tlLogic>

    <junction id="east_vertice" type="dead_end" x="100.00" y="100.00" incLanes="east_edge_end_0 east_edge_end_1 east_edge_end_2" intLanes="" shape="100.00,100.00 100.00,90.40 100.00,100.00"/>
    <junction id="intersection_vertice" type="traffic_light" x="0.00" y="100.00" incLanes="north_edge_start_0 north_edge_start_1 east_edge_start_0 south_edge_start_0 south_edge_start_1 west_edge_start_0 west_edge_start_1 west_edge_start_2" intLanes=":intersection_vertice_0_0 :intersection_vertice_1_0 :intersection_vertice_1_1 :intersection_vertice_16_0 :intersection_vertice_4_0 :intersection_vertice_5_0 :intersection_vertice_17_0 :intersection_vertice_7_0 :intersection_vertice_8_0 :intersection_vertice_8_1 :intersection_vertice_18_0 :intersection_vertice_11_0 :intersection_vertice_12_0 :intersection_vertice_12_1 :intersection_vertice_12_2 :intersection_vertice_19_0" shape="-6.40,107.20 6.40,107.20 6.84,104.98 7.40,104.20 8.18,103.64 9.18,103.31 10.40,103.20 10.40,90.40 8.18,89.96 7.40,89.40 6.84,88.62 6.51,87.62 6.40,86.40 -6.40,86.40 -6.84,88.62 -7.40,89.40 -8.18,89.96 -9.18,90.29 -10.40,90.40 -10.40,103.20 -8.18,103.64 -7.40,104.20 -6.84,104.98 -6.51,105.98">
        <request index="0"  response="0000000000100000" foes="0000010000100000" cont="0"/>
        <request index="1"  response="1111100001100000" foes="1111110001100000" cont="0"/>
        <request index="2"  response="1111100001100000" foes="1111110001100000" cont="0"/>
        <request index="3"  response="1111001101100000" foes="1111001101100000" cont="1"/>
        <request index="4"  response="0000000000000000" foes="0000001100000000" cont="0"/>
        <request index="5"  response="0000010000001000" foes="1000011100001111" cont="0"/>
        <request index="6"  response="0111010000001000" foes="0111011100001110" cont="1"/>
        <request index="7"  response="0111000000000000" foes="0111000000000000" cont="0"/>
        <request index="8"  response="1111000001110000" foes="1111000001111000" cont="0"/>
        <request index="9"  response="1111000001110000" foes="1111000001111000" cont="0"/>
        <request index="10" response="1111000001100111" foes="1111000001100111" cont="1"/>
        <request index="11" response="0000000000000000" foes="0000000000000110" cont="0"/>
        <request index="12" response="0000010000001000" foes="0000011111001110" cont="0"/>
        <request index="13" response="0000010000001000" foes="0000011111001110" cont="0"/>
        <request index="14" response="0000010000001000" foes="0000011111001110" cont="0"/>
        <request index="15" response="0000010000101000" foes="0000011100101110" cont="1"/>
    </junction>
    <junction id="north_vertice" type="dead_end" x="0.00" y="200.00" incLanes="north_edge_end_0 north_edge_end_1" intLanes="" shape="0.00,200.00 6.40,200.00 0.00,200.00"/>
    <junction id="south_vertice" type="dead_end" x="0.00" y="0.00" incLanes="south_edge_end_0 south_edge_end_1" intLanes="" shape="0.00,0.00 -6.40,0.00 0.00,0.00"/>
    <junction id="west_vertice" type="dead_end" x="-100.00" y="100.00" incLanes="west_edge_end_0" intLanes="" shape="-100.00,100.00 -100.00,103.20 -100.00,100.00"/>

    <junction id=":intersection_vertice_16_0" type="internal" x="0.00" y="102.31" incLanes=":intersection_vertice_3_0 south_edge_start_0 south_edge_start_1" intLanes=":intersection_vertice_5_0 :intersection_vertice_6_0 :intersection_vertice_7_0 :intersection_vertice_8_0 :intersection_vertice_8_1 :intersection_vertice_12_0 :intersection_vertice_12_1 :intersection_vertice_12_2 :intersection_vertice_15_0"/>
    <junction id=":intersection_vertice_17_0" type="internal" x="4.29" y="100.00" incLanes=":intersection_vertice_6_0 west_edge_start_0 west_edge_start_1 west_edge_start_2" intLanes=":intersection_vertice_1_0 :intersection_vertice_1_1 :intersection_vertice_3_0 :intersection_vertice_8_0 :intersection_vertice_8_1 :intersection_vertice_10_0 :intersection_vertice_11_0 :intersection_vertice_12_0 :intersection_vertice_12_1 :intersection_vertice_12_2"/>
    <junction id=":intersection_vertice_18_0" type="internal" x="-0.00" y="94.84" incLanes=":intersection_vertice_10_0 north_edge_start_0 north_edge_start_1" intLanes=":intersection_vertice_0_0 :intersection_vertice_1_0 :intersection_vertice_1_1 :intersection_vertice_5_0 :intersection_vertice_6_0 :intersection_vertice_12_0 :intersection_vertice_12_1 :intersection_vertice_12_2 :intersection_vertice_15_0"/>
    <junction id=":intersection_vertice_19_0" type="internal" x="-2.76" y="100.00" incLanes=":intersection_vertice_15_0 east_edge_start_0" intLanes=":intersection_vertice_1_0 :intersection_vertice_1_1 :intersection_vertice_3_0 :intersection_vertice_4_0 :intersection_vertice_5_0 :intersection_vertice_8_0 :intersection_vertice_8_1 :intersection_vertice_10_0"/>

    <connection from="east_edge_start" to="north_edge_end" fromLane="0" toLane="0" via=":intersection_vertice_4_0" tl="intersection_vertice" linkIndex="4" dir="r" state="O"/>
    <connection from="east_edge_start" to="west_edge_end" fromLane="0" toLane="0" via=":intersection_vertice_5_0" tl="intersection_vertice" linkIndex="5" dir="s" state="O"/>
    <connection from="east_edge_start" to="south_edge_end" fromLane="0" toLane="1" via=":intersection_vertice_6_0" tl="intersection_vertice" linkIndex="6" dir="l" state="o"/>
    <connection from="north_edge_start" to="west_edge_end" fromLane="0" toLane="0" via=":intersection_vertice_0_0" tl="intersection_vertice" linkIndex="0" dir="r" state="o"/>
    <connection from="north_edge_start" to="south_edge_end" fromLane="0" toLane="0" via=":intersection_vertice_1_0" tl="intersection_vertice" linkIndex="1" dir="s" state="o"/>
    <connection from="north_edge_start" to="south_edge_end" fromLane="1" toLane="1" via=":intersection_vertice_1_1" tl="intersection_vertice" linkIndex="2" dir="s" state="o"/>
    <connection from="north_edge_start" to="east_edge_end" fromLane="1" toLane="2" via=":intersection_vertice_3_0" tl="intersection_vertice" linkIndex="3" dir="l" state="o"/>
    <connection from="south_edge_start" to="east_edge_end" fromLane="0" toLane="1" via=":intersection_vertice_7_0" tl="intersection_vertice" linkIndex="7" dir="r" state="o"/>
    <connection from="south_edge_start" to="north_edge_end" fromLane="0" toLane="0" via=":intersection_vertice_8_0" tl="intersection_vertice" linkIndex="8" dir="s" state="o"/>
    <connection from="south_edge_start" to="north_edge_end" fromLane="1" toLane="1" via=":intersection_vertice_8_1" tl="intersection_vertice" linkIndex="9" dir="s" state="o"/>
    <connection from="south_edge_start" to="west_edge_end" fromLane="1" toLane="0" via=":intersection_vertice_10_0" tl="intersection_vertice" linkIndex="10" dir="l" state="o"/>
    <connection from="west_edge_start" to="south_edge_end" fromLane="0" toLane="0" via=":intersection_vertice_11_0" tl="intersection_vertice" linkIndex="11" dir="r" state="O"/>
    <connection from="west_edge_start" to="east_edge_end" fromLane="0" toLane="0" via=":intersection_vertice_12_0" tl="intersection_vertice" linkIndex="12" dir="s" state="O"/>
    <connection from="west_edge_start" to="east_edge_end" fromLane="1" toLane="1" via=":intersection_vertice_12_1" tl="intersection_vertice" linkIndex="13" dir="s" state="O"/>
    <connection from="west_edge_start" to="east_edge_end" fromLane="2" toLane="2" via=":intersection_vertice_12_2" tl="intersection_vertice" linkIndex="14" dir="s" state="O"/>
    <connection from="west_edge_start" to="north_edge_end" fromLane="2" toLane="1" via=":intersection_vertice_15_0" tl="intersection_vertice" linkIndex="15" dir="l" state="o"/>

    <connection from=":intersection_vertice_0" to="west_edge_end" fromLane="0" toLane="0" dir="r" state="M"/>
    <connection from=":intersection_vertice_1" to="south_edge_end" fromLane="0" toLane="0" dir="s" state="M"/>
    <connection from=":intersection_vertice_1" to="south_edge_end" fromLane="1" toLane="1" dir="s" state="M"/>
    <connection from=":intersection_vertice_3" to="east_edge_end" fromLane="0" toLane="2" via=":intersection_vertice_16_0" dir="l" state="m"/>
    <connection from=":intersection_vertice_16" to="east_edge_end" fromLane="0" toLane="2" dir="l" state="M"/>
    <connection from=":intersection_vertice_4" to="north_edge_end" fromLane="0" toLane="0" dir="r" state="M"/>
    <connection from=":intersection_vertice_5" to="west_edge_end" fromLane="0" toLane="0" dir="s" state="M"/>
    <connection from=":intersection_vertice_6" to="south_edge_end" fromLane="0" toLane="1" via=":intersection_vertice_17_0" dir="l" state="m"/>
    <connection from=":intersection_vertice_17" to="south_edge_end" fromLane="0" toLane="1" dir="l" state="M"/>
    <connection from=":intersection_vertice_7" to="east_edge_end" fromLane="0" toLane="1" dir="r" state="M"/>
    <connection from=":intersection_vertice_8" to="north_edge_end" fromLane="0" toLane="0" dir="s" state="M"/>
    <connection from=":intersection_vertice_8" to="north_edge_end" fromLane="1" toLane="1" dir="s" state="M"/>
    <connection from=":intersection_vertice_10" to="west_edge_end" fromLane="0" toLane="0" via=":intersection_vertice_18_0" dir="l" state="m"/>
    <connection from=":intersection_vertice_18" to="west_edge_end" fromLane="0" toLane="0" dir="l" state="M"/>
    <connection from=":intersection_vertice_11" to="south_edge_end" fromLane="0" toLane="0" dir="r" state="M"/>
    <connection from=":intersection_vertice_12" to="east_edge_end" fromLane="0" toLane="0" dir="s" state="M"/>
    <connection from=":intersection_vertice_12" to="east_edge_end" fromLane="1" toLane="1" dir="s" state="M"/>
    <connection from=":intersection_vertice_12" to="east_edge_end" fromLane="2" toLane="2" dir="s" state="M"/>
    <connection from=":intersection_vertice_15" to="north_edge_end" fromLane="0" toLane="1" via=":intersection_vertice_19_0" dir="l" state="m"/>
    <connection from=":intersection_vertice_19" to="north_edge_end" fromLane="0" toLane="1" dir="l" state="M"/>

</net>
